68
	Energy:     102.7556727
H          1.26156        0.17362        1.83216
C          0.74172        0.24706        0.88501
C         -0.66642        0.28287        0.84179
C         -1.46994        0.23631        2.10121
C         -1.29381        0.39169       -0.41138
H         -2.36866        0.45423       -0.49945
C         -0.54215        0.44454       -1.58479
H         -1.06621        0.53118       -2.52855
C          0.86148        0.40218       -1.54308
C          1.64227        0.48322       -2.80423
C          1.49757        0.30533       -0.29459
H          2.57804        0.27687       -0.22792
O          1.04766        0.55327       -3.87305
O         -0.90771        0.33895        3.18070
O         -2.82500        0.14738        2.08335
O          3.00308        0.52568       -2.78266
C          3.74648        0.75653       -3.92604
C          5.23808        0.82562       -3.62687
H          3.44189        1.73564       -4.35822
H          3.55696       -0.04103       -4.67863
H         12.92263       -1.09864       -9.00196
H         14.59223       -1.09036       -7.14232
C          8.39156       -0.49795       -6.59900
C         10.71646       -0.38933       -7.53354
C          7.50610       -0.55965       -5.52115
C          9.77922       -0.47340       -6.38498
C          7.98221       -0.59695       -4.19776
C          7.03830       -0.65349       -3.04029
C         10.26154       -0.52803       -5.06636
C          9.37360       -0.59564       -3.98574
C         14.38900       -0.16476       -7.72126
C         12.99360       -0.22118       -8.32235
O         12.05599       -0.33088       -7.31454
O          7.45876       -0.94793       -1.93192
O         10.27904       -0.35608       -8.67672
O          5.71173       -0.39626       -3.18191
H         15.14214       -0.07391       -8.53240
H          7.98587       -0.46689       -7.60266
H          6.44691       -0.59021       -5.73587
H         11.32596       -0.51585       -4.86744
H          9.77825       -0.63177       -2.98192
H         12.81292        0.70866       -8.90560
H         14.47777        0.71434       -7.04814
H          5.44303        1.60976       -2.86585
H          5.74405        1.13338       -4.56233
H         -5.49722       -1.52277        1.00859
C         -8.84428        0.38410        4.32784
C         -6.87910       -0.03970        2.82585
C         -9.42643        0.45419        5.59643
C         -7.48679        0.05394        4.17685
C         -8.66451        0.19461        6.75222
C         -9.25809        0.25190        8.12378
C         -6.72165       -0.20063        5.32469
C         -7.30272       -0.13136        6.59476
C         -3.50576       -0.95971        1.60912
C         -4.98916       -0.64184        1.45909
O         -5.56673       -0.37008        2.68450
O         -8.55227        0.01919        9.09315
O         -7.57180        0.15767        1.83534
O        -10.55961        0.54838        8.34593
H         -9.46325        0.58543        3.46206
H        -10.47344        0.70953        5.64753
H         -5.67345       -0.45970        5.24348
H         -6.68090       -0.33883        7.45666
H        -11.20311        0.74246        7.65444
H         -5.10609        0.22872        0.77566
H         -3.12721       -1.26667        0.61449
H         -3.35939       -1.81768        2.30055
