18
	Energy:       7.8630198
C         -4.36758        0.68358        6.82239
O         -5.01074        0.76180        7.85814
O         -4.88192        1.16808        5.67103
H         -5.75679        1.58079        5.64287
C         -1.46230        0.42050        1.71822
O         -0.43229        0.05967        1.16488
C         -0.71780       -0.38413        3.87129
O         -1.64518        0.22240        3.04731
O         -2.43353        1.02417        1.00322
C         -1.23275       -0.44444        5.27789
O         -0.53742       -0.95264        6.14643
C         -3.00986        0.04825        6.84201
O         -2.45746        0.06110        5.57686
H         -2.35655        0.61441        7.54134
H         -3.10745       -1.00095        7.19706
H          0.23031        0.19671        3.85893
H         -0.52050       -1.41876        3.51481
H         -2.33764        1.18196        0.05319
