14
	Energy:       9.0117885
C          1.31898       -0.10035       -5.43870
C          0.90735       -1.23385       -6.01765
C         -0.50868       -1.40991       -6.39361
C         -1.52114       -0.32194       -6.13568
C          0.37752        1.00633       -5.15765
C         -0.92849        0.90343       -5.47858
H          2.36486        0.01104       -5.16910
H          1.62122       -2.02908       -6.21170
O          0.85454        2.12720       -4.57036
H         -1.59822        1.73056       -5.26135
H          0.29134        2.88619       -4.36018
O         -0.86564       -2.45147       -6.92111
H         -1.97444       -0.01806       -7.10286
H         -2.31865       -0.72412       -5.47575
